
**** 05/19/22 16:23:48 ********* PSpice 9.2 (Mar 2000) ******** ID# 1 ********

 ** Profile: "SCHEMATIC1-soal2"  [ D:\2\soal2-SCHEMATIC1-soal2.sim ] 


 ****     CIRCUIT DESCRIPTION


******************************************************************************




** Creating circuit file "soal2-SCHEMATIC1-soal2.sim.cir" 
** WARNING: THIS AUTOMATICALLY GENERATED FILE MAY BE OVERWRITTEN BY SUBSEQUENT SIMULATIONS

*Libraries: 
* Local Libraries :
* From [PSPICE NETLIST] section of C:\Program Files\Orcad\PSpice\PSpice.ini file:
.lib "nom.lib" 

*Analysis directives: 
.PROBE V(*) I(*) W(*) D(*) NOISE(*) 
.INC ".\soal2-SCHEMATIC1.net" 



**** INCLUDING soal2-SCHEMATIC1.net ****
* source SOAL2
G_G2         0 N00161 N00161 N00264 0.5
V_V2         0 0 2.7
R_R1         N00161 0  1  
R_R2         N00161 N01101  3  
X_H1    N01101 0 N00264 0 SCHEMATIC1_H1 
R_R3         N00264 N00161  6  

.subckt SCHEMATIC1_H1 1 2 3 4  
H_H1         3 4 VH_H1 4
VH_H1         1 2 0V
.ends SCHEMATIC1_H1

**** RESUMING soal2-SCHEMATIC1-soal2.sim.cir ****
.END

ERROR -- Voltage source and/or inductor loop involving V_V2
You may break the loop by adding a series resistance