
**** 06/15/22 17:14:39 ********* PSpice 9.2 (Mar 2000) ******** ID# 1 ********

 ** Profile: "SCHEMATIC1-soal2-1"  [ c:\users\mahdi\desktop\sbu\elec\project\2\2\soal2-schematic1-soal2-1.sim ] 


 ****     CIRCUIT DESCRIPTION


******************************************************************************




** Creating circuit file "soal2-schematic1-soal2-1.sim.cir" 
** WARNING: THIS AUTOMATICALLY GENERATED FILE MAY BE OVERWRITTEN BY SUBSEQUENT SIMULATIONS

*Libraries: 
* Local Libraries :
* From [PSPICE NETLIST] section of C:\Program Files\Orcad\PSpice\PSpice.ini file:
.lib "nom.lib" 

*Analysis directives: 
.TRAN  0 0.5 0 
.PROBE V(*) I(*) W(*) D(*) NOISE(*) 
.INC ".\soal2-SCHEMATIC1.net" 



**** INCLUDING soal2-SCHEMATIC1.net ****
* source SOAL2
V_V1         N00215 0  
+PULSE 0 1 0 0 0 0.1 0.1
C_C1         N00297 N00540  2  
R_R1         N00215 N00297  1  
X_H1    N00540 0 N00327 0 SCHEMATIC1_H1 
L_L1         N00327 N00297  0.5  
R_R3         N00297 N00540  0.25  

.subckt SCHEMATIC1_H1 1 2 3 4  
H_H1         3 4 VH_H1 10
VH_H1         1 2 0V
.ends SCHEMATIC1_H1

**** RESUMING soal2-schematic1-soal2-1.sim.cir ****
.END

WARNING -- Pulse Period < (Rise Time + Fall Time + Pulse Width) for V_V1
**** 06/15/22 17:14:39 ********* PSpice 9.2 (Mar 2000) ******** ID# 1 ********

 ** Profile: "SCHEMATIC1-soal2-1"  [ c:\users\mahdi\desktop\sbu\elec\project\2\2\soal2-schematic1-soal2-1.sim ] 


 ****     INITIAL TRANSIENT SOLUTION       TEMPERATURE =   27.000 DEG C


******************************************************************************



 NODE   VOLTAGE     NODE   VOLTAGE     NODE   VOLTAGE     NODE   VOLTAGE


(N00215)    0.0000 (N00297)    0.0000 (N00327)    0.0000 (N00540)    0.0000 




    VOLTAGE SOURCE CURRENTS
    NAME         CURRENT

    V_V1         0.000E+00
    X_H1.VH_H1   0.000E+00

    TOTAL POWER DISSIPATION   0.00E+00  WATTS



          JOB CONCLUDED

          TOTAL JOB TIME             .02
