
**** 05/19/22 19:43:37 ********* PSpice 9.2 (Mar 2000) ******** ID# 1 ********

 ** Profile: "SCHEMATIC1-p3"  [ D:\3\p3-schematic1-p3.sim ] 


 ****     CIRCUIT DESCRIPTION


******************************************************************************




** Creating circuit file "p3-schematic1-p3.sim.cir" 
** WARNING: THIS AUTOMATICALLY GENERATED FILE MAY BE OVERWRITTEN BY SUBSEQUENT SIMULATIONS

*Libraries: 
* Local Libraries :
* From [PSPICE NETLIST] section of C:\Program Files\Orcad\PSpice\PSpice.ini file:
.lib "nom.lib" 

*Analysis directives: 
.DC LIN V_V1 4 20 1 
.PROBE V(*) I(*) W(*) D(*) NOISE(*) 
.INC ".\p3-SCHEMATIC1.net" 



**** INCLUDING p3-SCHEMATIC1.net ****
* source P3
R_R1         N00608 N00033  1k  
R_R4         N00271 N00814  1k  
R_R2         N00033 N00033  1k  
V_V1         N00608 0 10
R_R5         0 N00814  1k  
E_U2         N00033 0 VALUE {LIMIT(V(N00033,N00814)*1E6,-15V,+15V)}
E_U3         N00271 0 VALUE {LIMIT(V(N00033,N00608)*1E6,-15V,+15V)}
R_R3         N00033 N00271  1k  

**** RESUMING p3-schematic1-p3.sim.cir ****
.END


          JOB CONCLUDED

          TOTAL JOB TIME            0.00
